<?xml version="1.0" encoding="UTF-8"?>
<xmi:XMI xmi:version="2.0" xmlns:xmi="http://www.omg.org/XMI" xmlns:talendfile="platform:/resource/org.talend.model/model/TalendFile.xsd">
  <talendfile:ScreenshotsMap key="tMap_4" value="iVBORw0KGgoAAAANSUhEUgAAB3YAAAKbCAIAAACGu/ywAACVhUlEQVR4nOzdW5A8V2Hn+Z552dg3m/X6ZR/3wRG7DxMOPLGevydi52HsiLFj7LEHDCsZmzHjHnutMeDLjAGDudiLtcjr5jKAhDEgLgIkQEiihRAyAv11QRKW9EcSqP/mKgHiIpDBwICkf21VV1dVnsxzMrOqszpvn298Q3RlZZ483VSe889fnTxn5/L3XE2SJI/pmwtMJpMzZ06X2HqdSZLsiOU9ZrSTbb3OJEmO3Hl3/OghO/PXAABgYy4/jJh/J8ODDz44qRExt11xAADa5/IaEXOxk9WNAgDQIvGI+UEAALARk0zEvLwZfrB2xNx29QEAaJNJ7Yg518nqRgEAaAsRMwAADSNiBgBgY0TMAAD0DhEzAAANI2IGAGBjRMwAAPQOETMAAA0jYgYAYGNEzAAA9A4RMwAADSNiBgBgY0TMAAD0DhEzAAANM4yI+fkYDW1/1gAgQMQMAEDvEDEDANAwg4mYJxgBImYAXWMiYgYAoG9Mehoxv/CFL/z617/edi0AAIgwETGjP4iYAXSNiYj5xNn2/bX7dwAYPBMRMwAAzTIRMaM/iJgBdI2JiPnEETEDAI7JpJGI+c2HHKceb85QZ/+T7KLO+4sbz7sw6cnUAQDQIyYiZvQHETOArjERMZ84ImYAwDGZHD9invbu8yM3TpmXJdQvp7KLOv+CC3/92a945nMu+s3f/6vf+i97v/3Hr7ngT1777Bdf/Ad/9sb/+vI3v+Cit/7pX73jZa96Z+WJzrvwxtfvn3nNVfcEXn3Pq6+655Xvv+c115yRMgMAckxEzOgPvYiYb/3Ac6O2XS8AW2EiYj5xRMwAgGMyOWbEvEE63EghlV3U3puvvOXuv7/pzgdu/Pj977zyxus+dvc1f3vn+66/7T3X3vLua06/46qPve3KG1/26loR80GCez89+6+IGQCQYyJiRn9YK2J+z+8/6b1/9KQPvODHrn3Rjx3n0/WBP/mx9/3hk+rvf+sHnvuDHz6eU8QMDJXJuCPm4z8i/OA2nxLe7BlfETMADJ7JcSLmXDS8ccq8pVHML/nLt730r97+Z698x//zmnf/v6+9/KKL3/NXf/2+V73pqv926Qde/7Zr//qd173s1e+qPFExYv7UAwdn7j/4xCcPbrn74I57RcwAgDwTETP6Q/2I+fLn/ujjD7/riUeue+Lbt5/73gPXvfh/3uyjde0Lf2xawrSc9/x+3ZT5pqv/8Ps/ePyVb7/1ojfd9LLX3/CiV103fXn6qj9Y7vDo239m79m/eNXeb173+t3P3fCnm1UMQEeYnGDE/BtXvmDpBlX9wsc+dtsFz/zkK16S2z7dMt0+fXfdAo//iPCD27m/nrPxM74iZgAYPJONI+ZovrxZd7iNLvAVl7x3ee902z2fid5TTfepPFEuYv7UAwf33H9w570Ht9xz8JFPHNx0j4gZAJBn0nTEfOn5O1nOv3S5cf5jXW568ZPrHyFiHgknHDFPj3ri+w9MS3j8keumpU3LrHPUR678r9/9/mM5pxvn7z769p/56vue9tijV089feNN171+d4OKAegOk5ONmD//pd2pG0TMs3z5d379C7/1rOl/synz9Odb59t/+9fXSpkbeUR4s3LqR8ybPeNbo/zZP1J2nvzimyor0Ulm/ypb7x9lADA0JptFzCX58gbd4ZYi5tOfOLjlEwen7zp0+cNdfz//4Za7DtaNmO//9CxfvuOTBzffPcuXr7v94Ia7RMwAgDyTLUTMjdxziZhRZKOI+ePnvr9JxHz9S3/83A+//MT3DqYlHEbM73z8wYvf9XvVKfN1Vzz/H777WHYU8/TldVfM8qBlvvxv/vNbfvjVd3//c39z1d5vrlsxAJ1icoIR869d8byDL/zWwRd/6xlXPG/dep59+5tu/Y/P+O6fv3Tq9Ic7/+sF0y3T/05//s5i43RLzdKaekS4WNRWI+aaz/hWlz/9N8qU+v/eaerfRg0hYgaAycYR85Jc77XWlE/L0hrvAl/+2suX904f/fj90Xuql7+27kQZDxwc3Pfpg7vvO7j9kwen7z74208cfPD2g6tuPfjQJ0TMAIA8ExEz+sOaEfM7Z9Hwt29/4nsH60bMH37pj5974ltPPPblw1HMH39iWs5X3/nYQxc/9vmLLrvgR8qPveqdf/rN7/ww59XvetEPzr5/mS//4DBf/u59r9x79i+uVTEAXWNyghHz0y/7o3nEPP1hg6p+8hUvueU3zv/28//kO89/wWd/7/++9TfOm/73289/wXee94Jbf+P84gQaKRp8RLhY2vYi5vrP+FaWP/+nzhpBbfci5i5VBwBaYNLicn/Hyakru6gX773jw6c/ef3pTy7/W3S6T2Ul553ovZ86uOu+g4+fObjproMb7jy49uOzfPl9txxcd6eIGQCQZ3IiEXNm4zw6PnzCdEaw72qSjSe/+NJoxDw7LnJbJGIeCWtEzM85iphnMymvOVHGDX82y5dn/vDL5zITZTz+0MWPf/6ixz7zsnf8blnKfMXbXvb1f/jBK99+64tedd30h7nTjd/73Ifn82P88KuXf/9zf/OP973q61c949G3/0z9igHoIJMtR8xPvfS5T3nLc576lul/n3v32Wctfcrhlrn1a3vmuS+4+bz/69vP+cNvP3vmdw7/e/N5T59ur1lCs48IFwvcUsS81jO+VeUv/lGT/zI8/BfQ4t1gArHF7st/Bu2kJxI7LO7S5Y6zvW4KXj1YLCtz/nltVm8W3kr/ggAwfCbtRswbd6WVXeAfX/jm5b3T9ac/Gb2nmu5TXsOdZ9ye9Y57D26+5+Ajdx186M6DD0694+CmMyJmAECeSRsR8/JGZ3bftXgj+/PRDZmIGSEbjGKezcX8/fVGMd/wZz/+4Zf++PUv/fHFXMyHo5gffuflz/nRd/3ej152wY+UR8zvePPLH/7WD778zZXTl9ONf3/X3y7z5e/e+0r5MjAMJluOmP/dJRfcfP8zZ973H26+7+iHW+575i3zjfc/85cuuWCtCt/81F996GnnfXv3P8/90tPOm26pf3izjwg/uP2IeYNnfCvKX/2bJpcxxyPm+Dur48JX4Xl2smfKvVql1ecvig62z/8lFfzrKxNwi5gBjJxJixFz8fD6RVV2gc992SVXXn/blR/++PS/15/+5OzngtN9SkrYecbtL7z2kazTLdMus+havzIAYPBMtrvc39HdTC5iXt3YrG7A8tH0WhMFiphHQmXE/I7f/ZHLLviRd/3ej85HMc/nYn7icC7m6186C45v+LMfr/mhevBwub9z3z9YjGJ+Z83l/q695rIzn/7MPFy+676z73//5W954yumG7/04Jfe+MJfNX4ZGBiTLUfMP//q337PrefPvOW8K249b/rf6c9XzLacN/fnX/2f1qrwzb/y1Iee+vRHn/k73z50+vN0ywa/+PFvrrf3lPCcjZ/xLS8/+++VMGOuGTEXvotPTA0W/kOo8CoaEme25/8dlfn3l4gZACbtRszFEmqWU9kF/u4LXru8d9q/8a7oPdV0n5ISdp5x+3y3Hz5x7hvfm9z/jXPTLev+dgCAETJpZ6KMxRvLG57C/ZW5mFGkTsT82Gde9vjnL5pNavHwuxajmB+YTXlxOPfFuhHzE997YBUxP6dWxPzgYcr8+te/cur0h6999WsPf+XhLz/89euu+uDV77ry1b//7+TLwJCYbDli/tev+M2ffcWzfvai35z65huf/pYbn/7mQ2dbpm9dNH3rWfVre+a5Lzj9i7/y6Pm/lfWmX/yV+hNlLNne+K3KAutEzMd5xres/NzTVMHLehFz5Cv0eGAcbi17FUy7kYmYw0KD0dciZgAjZ9J6xLxZIZVd4PkXXFjHkhLmEfP3fjh56NuTux+eXP+5iYgZAFCHSUci5sIdl4gZRepMlHHZBT/y2Ocveuyhix//6moU8xOPzSLmD790jXz5waOI+eDxNUcxz/nsmY/MvfX0rR/9249e/4Hrrrn8qve89fJXPvsX5cvAkJic4HJ//+rPf/211z31tdf96vSHDao6y5d/4ZfnsfL9v/KUm37hl6f/nf78rfP/4/TndVPmLY3fqlNa5f31MZ/xLSk/CHPLQ90Tipiz02nkRzGLmAEgxaQLEXO2nJol1HyQ5zjkvqSdu9UzAgCGwaQjEXNhkmUTZaBIzbmY3/V7P/r4gxcv5mL++BPfOzj3wy9fv2a+/ODRRBnLuZjftVbE/NCl/+LcP/7lZPLxy/7i127Y//D+e6658u1XvPuNl/3V7/3bdasBoMtMTjBi/pcvOu8vr3nKX17z73/mReetW8/P/vVlN/2bXzoKlP/NL5157gumW6b/zW6cbqlf4DbGb9Usqk7EPO81NnvGN11+ZEWIzKZCChyNmItlpCfKqI6YE/+qerD476i1/l0FAENncsyI+cFwyqfjVGWtEk4gYgYAYDMmHYmYLfeHGqy53N/RRBnzuZhrHphlFjEfTpSxbsS8zJcnk3PTav/NC3/1/Ze97/I3vfOyS94mYgYGxuQEI+affv7T5hHzTz/vaevW8wsf+9gsRP6VX53ny8vt85T5s7/y1Ol/p/vUL7Dx8VsNPiV8zGd8k+VH/xGyWkgvu6Re+O+Y4rTK4XJ/VfMqp19ljw4WVI7UoGwgNQCMjMnxI+ZWEDEDADrLpDMRc/D46fmXxsf0iJjHTf2Iecp7fv9JhxNl3H7tC3+s/lFZNouYw3x57sdf/fu/fNkb3i5fBobH5AQj5n/+X56ydIOqzlPm4oQY85R5rXz5weYi5ge38JTwMZ/xTZUfxLQrisly8d8xi3/hLDZkJ9xIzVlRcy7mVVHTLfmJMi7N/ssq+EVEzADGzUTEDABAs0yajphbQcQ8EtaKmKe87w+f9IE/2TBfnnPti37sAy/4sff+0ZPe8/tPqnnIV+//g1y+fO4f/3Lv2b8oXwYGyeQEI+au0dQjwg927CnhYdy/xyd4BgAcMulpxAwAQGeZiJjRH9aNmFvha59/23x+jGW+/MODF8qXgaEyGXHE3BYi5jqImAGghImIGQCAZpmImNEfehExAxgVExHziSNiroOIGQBKmIiYAQBolomIGf1BxAyga0xEzCeOiBkAcEwmImYAAJplImJGfxAxA+gaExHziSNiBgAck4mIGQCAZpmImNEfRMwAusZExAwAQN+YiJgBAGiWyVAiZoyEtj9rABAgYgYAoHeImAEAaJhhRMwAALSCiBkAgN6RjJgBAMDGiJgBANiMiYgZAIC+MYlGzCRJ8piKmAEA2AARMwAAvSMSMZf35SRJso4iZgAANkDEDABA7xAxkyS5FUXMAABsgIgZAIDeIWImSXIrbhwxAwAwco4TMQMAgFYQMZMk2bybRcwkSfLyTSNmkiTZoiJmkiQbdoOImSRJ1lEnS5JkBxUxkyTZsO5+SZLckjpZkiQ7qIiZJMmGdfdLkuSW1MmSJNlBRcwkSTasu1+SJLekTpYkyQ4qYiZJsmHd/ZIkuSV1siRJdlARM0mSDevulyTJLamTJUmyg55QxDw9B0mSJ2xbnau7X5Ikt6ROliTJDnpyEfMEAIATpF8Rc+txPEmSHbHxTpYkSW7byclGzDskSZ6I/YuY20vjAQDoCiJmkiT76ETETJIcor2MmB8EAGDEiJhJkuypImaS5El70UXT//7bLZ9FxAwAQM/oXcTc+qQiJEmemOV9ooiZJEft/3fIBgdefPElNS0eK2JOdZRt39oDAJDkhS984de//vWtnqKPEfPJzB8CAEC7iJhJkmUeJ2L+8Idv+EwpH/nIjcePmM/7ixvPuzBp+kARMwAATSJidp9LkhyrImaSZKnLiPmKd148tf6BN910/hvf+Ddf/erDk8m5qN/73nff+ta33nDDfyweWz9iPu/CG1+/f+Y1V90TePU9r77qnle+/57XXHMmnTKLmAEAQ+bNhxy/hPrlrBUx7/za7TvPSJo6SsRMkmQnHWrEfHbn1M6MvbOt/4lJst9mI+ZpM10/ZT537p9+8IO/+5a3XPoP//BoNGK+9toPvuMdL//BD/7H4rFrRcwHCe799Oy/ImYAwInxG1e+YOm6x05vt6Jh7nzj9N21SpsfMi9z3ZrkSqhfTv2IeecZt//J/jf/8MpvBL7/G8+98hv/+b3f+IOrv5lKmUXMJEmua0cmohQxk+SozUXMa6XMjz32P1x++Z9efvkVP/jBf8/ly/fee+8ll7z+4Yf/1+iBx4mYP/XAwZn7Dz7xyYNb7j64497BRswvfvJhP/fkF9+UufG+9PzIRgDAifEbV77g81/anbpuxLzMl3Mpc3Zj/ZR5g3S4kULWiphTMzl+57HD20IRM0myq957789eccXL3vjGi9/whtete+yY1zoSMZPkuJxPiBF1eftXP2X+x3/80be97cKrr77miSceX+bLjzzyyBvf+Dd33pns5DaOmD/1wME99x/cee/BLfccfOQTBzfdM9iI+aajjPn8S1f33RJmAGiZX7vieQdf+K2DL/7WM6543loH5iLmebxb3FKnqFw0vHHKfMIR8w8en3zr+5OH/mFy/9fPff47ImaSZEe9996ffdOb/ttDDz30zW9+87Wvfe26h495raP2IuZFTLwThsX7u5mtu8Hvs7c4YHdPxEySm5jNkcupnzI/8sj/8sY3vuajH/3oPF9+/PHHLr/8iiuv/ONz5/5p6pDNIub7Pz3Ll+/45MHNd8/y5etuP7jhrsFGzJGM+WiLhBkAWuPpl/3RPGKe/rDusW+uomYhxXx5s5T5xCLm6T8O/vvjk0e+d+6L3z53/zcmH//SuXseETGTJDvq5Ze/9Itf/OJXvvKV66677tWvfvW6h495raOWIuYwX16GxXu5rVNO7ZydJN4SMZPkmi4j5n/y+ifPPU7K/E/+6p/N/fzn/9kll7z+rrvumvZ8N998y5ve9Kpvf/t/Kjlw3Yj5gYOD+z59cPd9B7d/8uD03Qd/+4mDD95+cNWtBx/6xHAj5kLGnEmYF28dsQydj4Y5n3/p4Q+yaABogqde+tynvOU5T33L9L/Pvfvss5Y+5XDL3JpFbS9f3iBlPpmIeXpP/P3HJo98b/KFR8/d9/XJbV869+HPnbv5YRGzB3NJsqNecslrH3rooem97RVXPHtyGBlfNOMvah4+5rWOWoqY949ui/ez1V30srv7hZeL/edvnd0TMZPkJm4pYp7+fN99/+fFF18y7Ymn/z179v8oP3DdLvDeTx3cdd/Bx88c3HTXwQ13Hlz78Vm+/L5bDq67c8ARc27UcvZVLmJe5tBHEXM+eQYAHIN/d8kFN9//zJn3/Yeb7zv64Zb7nnnLfOP9z/ylSy6oX9rG+fKDhYmbs+nwukU9eCIR8+PnJt/94eTr35187tHJma9Nbnlocv1nJ1c+MPnbh0TMImaS7Kive91rPvOZz9x8883vfvcF73znBVdcccWnPvWpCy/885qHj3mto06MYp53q0fB8WLY8mQxcvnUXuStXf0xSa5v/Yi5TkeYjZgnh7NHXXvttdHJoXLW7AKn959Zpx3ezfccfOSugw/defDBqXcc3HRmyBFzLFUuxsbLkcurn4XLANAgP//q337PrefPvOW8K249b/rf6c9XzLacN/fnX/2f6pd2nIg5W8hxBi9vnFOvGzF/579PvvqP5/7+W5N7vnru9IPnPviZc1c+cO7d95+74UERs4iZJLvoF77wv7361a+69957b7vttg9/+MMf+tCHPvaxj50+ffrii5+TOsRaR0tbipgPzc59Ec2RkxGz/pgkN3KZLAe+5H+fWr8LXCbLRRuMmKc3ny+89pGs0y3rrEjQ/4g5myvP0+NFdpwYxpyNmwEAzfCvX/GbP/uKZ/3sRb859c03Pv0tNz79zYfOtkzfumj61rNqFnXMiTKy5TQ1P8Zas23UjJh/4XlXziPmxyaTbz02+fx3Jvc+Mrnt4clHHpxc/8XJh74wuftbA4+YLS9Ekr3zhrtf+jcffP9rXrN366233nnnndP/3nLLLTfddNONN9544YV/ettt/yJ6lLWOsrYZMc896oB387NhRCfKCMY7649Jck1T+XI2Yq4/P8a2I+Z5fX74xLlvfG9y/zfOHW6p/8sOIGJeZcwvzibMwWDlyChmETMAbIl/9ee//trrnvra6351+sO6x5bkyycwx0XJ4fWLqhMx/8Lzrrzwso/lnkOKGj18ABGz5YVIsnde/3cv+evrvvL6/S9f9K5Pnzlz5gMf+MCFF/7FhRf++ctf/rLXve73UvnyxFpHoS1FzPv5nnUeK5f0x7uFd/THJLmuqXx5GTGvNT9G0fe8573NRszf++HkoW9P7n54cv3nJiOMmJcZ85OfvJOflXkeJAeLAoqYAWC7/MsXnfeX1zzlL6/59z/zovPWOjA3E8U85C1uqVnaMSPmYgk1y6kZMd9xyG233/7RW+7Y/+jt0y31K9b7iNnyQiTZNz/0dy/562u//OG7vvWhv/vmRe/94gvecOaii/7sm998Up1jrXWUtRMR81EHfGjyqaLM9M17+54qIsljucyXs8sR1H9456iQwlzMcysPrBkxF12neoOImLNTYqRnyRAxA8DJ8NPPf9o8Yv7p5z1trQNTkx23FTFvVkj9iPmW2+644fQdV3/kjnddf8eoImbLC5Fkv7zuEy+5+NovX/9337zsxq++9YaHr77tGy952+f+9NJ31DzcWkdZW4qYSZKtuhy8vIyYNykk7ALrW/9b1mM4jIh5FShn1vDLbjNRBgCcHP/8vzxl6brHLlPm3PZ18+UHG4qYs+XULKFmxFy0fpVGFDFbXogk2/aDd7z49dd8+UOf+ObbP/LV117zpTde95X33vL1573ps6+4ou4NsrWOsoqYSXKMNhMxLwpZ90ARc6qjrH8TDgAYMxsvFRgtp+bONZf7Ow59j5gtL0SSfXH/jhe/5uovf/DOb779b7/6mqu/9IZrv/ye01/747/57F+8e427Y2sdZRUxkyRPWhFzqqPc6n07AADHQcRc5z7X8kIk2Quf96bPXHvnI2+94eFXvf+hS/a/fMVNX/vDv/7sy9+13ugrax1lFTGTJAepiBkAgCYRMde8z7W8EEl232e/7uzVtz3yhg9+5fXXfPnym772B3/92Ze+4682Ls1aR2dEzCTJgSpiBgCgZwwjYiZJdt8/u+y9L3nb5y7/2NfeeePXnnvx37/kbZvnyxNrHR0qYiZJDlIRMwAAPUPETJI8Mf/gDVf98svu+4UX3vOnbz1Wvjyx1tGhImaS5CAVMQMA0DNEzCRJrquImSTJ7SliBgCgZ4iYSZLspJ2LmAEA2Dpf+tKXJv2MmAEAGDkiZpIku6eIGQAwPnoaMZMkyctFzCRJdk4RMwBgfPQxYiZJknXsVCcrYiZJjkMRMwBgfIiYSZIcqp3qZEXMJMlxKGIGAIwPETNJkkO1U52s+1wAlczvTYD+UvP+eiJiBgAMDBEzSZJDtVOdrPtcAJWImNF3RMwAgJEiYiZJcqh2qpN1nwugEhEz+o6IGQAwUkTMJEkO1U51su5zAVQiYkbf6VnEfHbv1M6K3f2qX29/d+fU3tlm/lQAgGEhYiZJcqh2qpMVMQOoRMSMvtOjiHkeL2di5f3dyoxZxAwASCFiJklyqHaqkxUxA6hExIy+05uIeRYwr58Wi5gBAClEzCRJDtVOdbIiZgCViJjRd/oSMe/vls6LEUygEQx0XkbMYdo8O+Bov8M39pcFzLaeDV5lDli+IbgGgN4jYiZJcqh2qpMVMQOoRMSMvtOTiLk0YT7MfYMsePmqZsS8jIyPIuTsq6O95u8cvTE7RMgMAD1HxEyS5FDtVCdb8bRuQPv3mYc3yNXrHgFolvKI2cpk6D4DiJgLF05+hHKNiHlVduFVJm5eHZ85HADQU0TMJEkO1U51shURsztLAGURs5XJ0A/6HzFH3lpdSrUnyjhbPDZ8FXb9m80MDQDoEiJmkiSHaqc6WREzgEpSEbOVydAXehIxl1xSImYAwEaImEmSHKqd6mTXjZhTU0HOb09Xz8vnH7M9nOIinOoxP/nGfJfsxsKWXDKVWPfIYkVAwyQiZiuToTf0JGLOdbL5d9afKCNzkYqYAWCciJhJkhyqnepk1x/FvLrhzN56ztPgxav80kGnTu0GkfPyhnV58xuUtTf7obglvCVOr3tksSKgYeIRs5XJ0B/6EjFPwg//0Yb5Bz5cjiDfmcY64ODbXREzAIwTETNJkkO1U53sGsv9BeHu9AY0uD/NZ03xIHoSHYi8GJ8YZlWxhDuZTAX7W6wIaJj1I2Yrk6Fb9ChinuT739w1EluCtzh0+WjAv4kyAGD0iJhJkhyqnepkN5uL+ej2Nf7ke25DWMxq7ovcA/RH982ZIotbwnknk5NSukEGGmbtiNm0segY/YqYAQBoDBEzSZJDtVOd7GYRc/B0+iHrRMzpYYZVObOIGWiFeMRsZTL0BxEzAGCkiJhJkhyqnepkN4mYVytspSfKWL1eNwOKr2g035J6Pj48j9QJaJjEcn9WJkNvEDEDAEaKiJkkyaHaqU622eX+Mqt5BSsP5cPn7HpFu0fh8WLTYv/iljBnSq97JHUCGiYRMU+sTIa+IGIGAIwUETNJkkO1U53sGsv97Ryt8Zcbu5wZX7y/OiJMfYoPzOfXK8qcLLklulZgYjkkqRPQIOmIeWJlMvQCETMAYKSImEmSHKqd6mSbus8tzMUMYDiURsxADxAxAwBGioiZJMmh2qlOVsQMoBIRM/qOiBkAMFJEzCRJDtVOdbIiZgCViJjRdzoaMX/9H8+1+VcBAIyAeV8jYiZJcnh2qpM1lApAJSJm9B0RMwBgpIiYSZIcqp3qZEXMACoRMaPviJgBACNFxEyS5FDtVCcrYgZQiYgZfUfEDAAYKSJmkiSHaqc6WREzgEpEzOg7nY6Yd5+88+TQFv9SAICBIWImSXKodqqTFTEDqGR6b/Loo4+2XQtgc2reX09OPmLenQXKuzmlzACAphAxkyQ5VDvVyYqYAVQiYkbf6WjEvMyX77zz4jBlfrKUGQDQCCJmkiSHaqc6WREzgEpEzOg7nY6YZ/nyxU++c3fnOBHz/u7Oit39yp1P7Z1d9494du/UTsgGhZTXaln1bA1n2xe/0bbrAADDQ8RMkuRQ7VQnK2IGUImIGX2n0xHzzIuDfHnNiPkwd83Eyvt7FbHr5hFzEF7PY+2qPHuj85VFzJvVAQDGioiZJMmh2qlOVsQMoJJsxGxlMvSRzkfM4SwZk4vXubRmset6CW5DEfOkmG43db7aEXPtOgDAWBExkyQ5VDvVyYqYAVSyjJitTIae0quI+eInr3ldZTPYkOy8EpmQNxf5ZvYKdwo3xuLd/MmLRUVm8KhRq3Ui5rI/AABAxEyS5FDtVCcrYgZQyTxitjIZ+kuHI+bDQDmXL8/nZa5/Xc0z2+JA4bN7u4ttwVDfbIAbjIFeZrXZrYt5N+LxbmbPeFGTfKRdp1brRczrj+MGgPGw7AJPn76mFed3v8uX87vftipz8raePpAkB2y7EXOum9tSxBy/B7QcEdBPshHz9lcmO7yACtdMdJhi4VpbHRY9ReW1GS0wKCpS7eoKRyuv0ThJOhoxT6v15HnKvHJnPi/zuinz8kOU/Ohkuqz4j4tSZh/L1IQUkZ57WUKiqOI71bVaM2Le8B8MADAKRMxkg7YeJ5Fk1tYj5mzDeIIRs+WIPMWLvpIbxbzdlcmm708pXI3JiDlyYSVPUXltpr4eK6lDnQrXipg1GtukuxHzZHYBZaY2XwbNG6TMk8gnJ/j6ohjmxr5AWQ5jzn0GK0YQJ4uK9K8VtTKKGQCaw0QZLdp6HkoyauuNA9mUXYiYl9fUyUXMliOyHBF6Sz5i3ubKZPPLqpjJrhExp09ReW1uEDHXqfD6EXO+YjgmnY6Ys2SC5k1T5tUFcBj6xlLbMGJOf8rCnDk5D/LqbImigv61Rq02mItZwgwACUTMZFO2HoySLLH1JqIVOxIxz//+ZRFzYaWfSW7gUTFPWey+H7kHtByR5YjQV8oi5gZXJjt69/Cqig7rrTuKOXmKymtz/Yi5VoU3ipg1Gk3Sm4h5zvFS5sUHJ/xYBbMr72b7zPJ0drVH7GOau3oSReXnfq6q1Xr9qwsFAMoQMZNk1taTULJBOzUbVTJiTq30s7qNyy/SE94NJmdNtRwR0DtWEfM2VyabESZf2ctonYi5pLWp0T6sFTHXq/CGEbNGozl6FjFPwpR5+kPZBTb9oORnxij0keE1ke+9sl377tGQ5OKHM/8xnZeZnZImWtSk+GGvVata/WuhDgCAHCJmkuTgbT3qFTFXRczJKKWwT/6t0jGEO8l0KSzJckRAR5hHzJNV6rWtlcnSYx3TEXOW2IMPiQs+ftqyAmN1qFnhDSNmjUZz9C9inmSut6PZM5LkZkGOPbMzn80l0almjy9eCsFHPHGisqKyh2aneS6tVVn/WlUHAEAWETNJkkO1OxNllEXMxZV+SsbvFdKR8pGAliMC+sUyYp5sdWWy3DUSvlxrFHPqFA2PYq5dYaOYW6eXEfMkc71t+w8EABgqImaSJIdqdyLmM5XL/WUj3JKIufBWde5jOSKgP2Qj5iyNrkxWHJ64k7sKN4mYi6covTbXipjrV3jzuZg1Gg3R14gZAIBjImImSXKodiRinr+siJhnLOKZ4ni6ZShSeKvG2juWIwJ6QypintPMymSxizN36W0YMWcOrbw214mY16jwRhGzRqNJRMwAgJEiYiZJcqh2IWJevkxGzLGVfvIL+eSWzYsu97fcy3JEsiL0lvKIedL4ymSRt9eJmFOnqHFtrhExr1PhtSNmjUbTiJgBACNFxEyS5FBtPWLOvixd7i//3He4OT1x8e5+mPhmJsQoTIAcHGk5IqCTVEbMk2OvTBZ8TbViFdnm51FfzgMfudhqtDaJazNRYKbq2dS4ssLZnQuV12icJCJmAMBIETGTJDlUO9XJ1pgoA8DYqRMxT6xMhg7TxYj5UQAAToQ6XeBI7n5JkhySnepkRcwAKqkZMQOdpYsR88QoZgDA9jGKmSTJodqpTlbEDKASETP6jogZADBSRMwkSQ7VTnWyImYAlYiY0XdEzACAkSJiJklyqHaqkxUxA6hExIy+I2IGAIwUETNJkkO1U52sNYcAAGOgzv31RMQMABgYImaSJIdqpzpZo5gBVGIUM/qOUcwAgJEiYiZJcqh2qpMVMQOoRMSMviNiBgCMFBEzSZJDtVOdrIgZQCUiZvSd4UfM+7s7K3b3K3c+tXd23VOc3Tu1E7JBIQCAE0bETJLkUO1UJytiBlCJiBl9Z9gR82H2m4mV9/cqot/NI+YgvJ7H2lV59sbnAwA0gYiZJMmh2qlOVsQMoBIRM/rOoCPmWfS7XoLbUMQ8KabbTZ4PANAEImaSJIdqpzpZETOASkTM6DuDjpgPRxPHY97s3BaZkDcX+Wb2CncKN8Yi5vDksdNFZ/CInxEAsAVEzCRJDtVOdbIiZgCViJjRd4YdMR8ltsWw9uze7mJbMNw4GzEHY6CXeXF262LejXjEnNkzdbpcpB0/IwBgOyy7wNOnr2nF+d3v8uX87retypy8racPJMkB227EnOvmthQxx+9DLUcE9JPGI+bSpuDwIi5ct9EgqnC9rw6rGjpZ3j7k6xCUFhZbUgd0h4FHzDMWn8TkBzDTqcZ/XJQy+2CnJsWI9NyJzjq7OdglcUYAwHYQMZMN2nqcRJJZW4+Ysw3jCUbMliMC+kqjEXNVUzB9f0rhakxGzJGLO3mKuu1Dog7RagjIesEIIuY5hY908B1IMVeOfXuS/e4k+9muHMWcOl0+bo6fEQCwFUyU0aKt56Eko7beOJBN2YWIeXlNnVzEbDkioLc0GTFXNQXzC7GY5K4RMadPUbN9SNUhWg0Rcy8YTcQ8yV4Ah2luLOcNI+b05zfMmZNzMWfj6lSsbGYMAGgJETPZlK0HoyRLbL2JaMWORMzzv39ZxFxY6WeSG59UDIAWu+9H7kMtRwT0lUZHMZcHTIvrPjreuO4o5uQpqtuH0jpEixYx94IxRczLT2n42QxmV97N9pnlPdxqj4orIn269NzPAICtI2ImyaytJ6Fkg3ZqNqpkxJxa6Wd1/5hfOij/FGxi1lTLEQG9o9m5mFNNwYww+crlvrUj5pLWpsao53QdotUQMfeCQUfM089gfmaMQh8ZXhOFiSsyXfvu0QDo7Let85/zn/V5mcG/CuKny1038TMCALaDiJkkOXhbj3pFzFURczFaCROb1T75t0rHEJaOCrYcEdA9Gl/uL9UU5L9Yys6nXGe5v9iDDzWu5OTFX9w/HjGn6oDOMOiIOT+9cTiUePm5THeq2eMz36/kP9KFpS2js85ETrd6J/u9tEsGAE4EETNJkkO1OxNllEXMxZV+IgFP8nHyikTWckRAr2g+Yp6Tawpyo4nDl2uNYk6dorp9KK1DtBq+gOoFw46YAQBIImImSXKodidiPlO53F82wi2JmAtvVWculiMC+sO2IuZJbhKbU8Wvdsovylrxbu4UZe1DRR2i1RAx9wIRMwBgpIiYSZIcqh2JmOcvKyLmGYt4prhCzzJZqTHQr4DliIDesMWIOT63+hG5BmHDiDlzaNUCfhV1iFZDxNwLRMwAgJEiYiZJcqh2IWJevkxGzLGVfvIr9OTWw4su97fcy3JEQG9pMmKu0xRE3l4nYk6dYq32IXq8iLm3iJgBACNFxEyS5FBtPWLOvixd7i/ykHj2KfLikOblpMVh4puZECM2s7HliICO0+go5nhTEHxNtWKV7+YnSF/OAx+54Gu0NrH2obIOkzrL/Zlkp5OImAEAI0XETJLkUO1UJ1tjogwAY2ebE2UAJ0EXI+ZHAQA4Eep0gSO5+yVJckh2qpMVMQOoRMSMvtPFiHliFDMAYPsYxUyS5FDtVCcrYgZQiYgZfUfEDAAYKSJmkiSHaqc6WREzgEpEzOg7ImYAwEgRMZMkOVQ71cmKmAFUImJG3xExAwBGioiZJMmh2qlO1ppDAIAxUOf+eiJiBgAMDBEzSZJDtVOdrFHMACoxihl9xyhmAMBIETGTJDlUO9XJipgBVCJiRt8RMQMARoqImSTJodqpTlbEDKASETP6zsAj5v3dnQyn9s42Uurxq7S7f5zDF0ef3Tu1E9KJ3xAAeoKImSTJodqpTlbEDKASETP6zvAj5mXqehjItpHBZivRRGFBxByE1fNEffP8GgBGhYiZJMmh2qlOVsQMoBIRM/rOiCLmeSTbQsZ8chHz0TYhMwDUQcRMkuRQ7VQnK2IGUImIGX1nnBHzPJsNxvwGk05kItrDEvaXb87eORu8mmRLL5QQzNRxuDEXOCfOO6/h8s3VEVURc7gHACCNiJkkyaHaqU5WxAygEhEz+s7oIubD8PUwaz61u3wnHPobvDrMiI/KOEp8s6+CaZHjJeQqUZi7I3rU/FRHO87qsDimOmJuaaw2APSOZRd4+vQ1rTi/+12+nN/9tlWZk7f19IEkOWDbjZhz3dyWIubo/aDliICe0mzEnGoKwu2RSzPYIbzAsvlY5KCwqGg5+bOHwzHrlFBSk2yTqN1ohRFFzJmPfC6FLcxkkflghp/ywqtVCJwsIR0xlxwV1jBRn3jE3OzEHAAwXETMZIO2HieRZNbWI+Zsw3jCEbPliIA+0njEHG0KihlXmFcVX4d7x9qUaflT8jumyylUI16xypqU53DajZNn+BFz7HuK8AMWmVkiFR4nXpWWkCyi7KiwhpnA2ShmAGgKE2W0aOt5KMmorTcOZFN2IWJeXlNtRcyWIwJ6xPYi5mxTkAuism1ELm9elhOMnzxVvN7m8wSE8W5pOcWXxRNV12RvL7dX7Yh5ot3YEsOPmGNd26AjZoOYAaAeImayKVsPRkmW2HoT0YodiZjnf/+yiHk1KiocEpV4jD27+/4aEbPliICu01rEHH2Gf1I8dNU45McEB1ury4nulNlSsyZnczuuEzFrN7aCiDn2zW54kVVHzKUlJIsoO2rjiNlVAgB1ETGTZNbWk1CyQTs1G1UyYg4GEO5F1vwpLhQUTgRZJ2K2HBHQC7YdMc8vnSAzyo9hjoZJqzfmZUZnnk2cIF5OdK/gNPVqMkm3D9qNVhAxH+2WuMjqRcylJSQncC47aqOIed4pC5gBoB4iZpLk4G096hUxV0XM6cdh8/vk34rmMIn7TcsRAV1nexFzNnpKTCe7VrCbKXtxTbYVMWdbjvUiZu3GFhAxZzYlrrI6EXNJCat3qp4Sin7FtHiViJgDpMsAsAYiZpIkh2p3Jsooi5gXt3S1ZnEs3MWm5mKO5UeDnivSaEQMgsYj5miUnJyPYs2xw7nrtrWIuTAfULF87caJMfCIGQCAFCJmkiSHanci5jOVy/1lc+aSELbwVo3l/hL7DixiNhgRg2CbE2UE2+NBbypyLc6APFleitP/KYwgrlFOvhq5LWvVZHFoMFmHdqMlRMwAgJEiYiZJcqh2JGKev6yImGcsspOSBXsKb1VOlBErJThb9P1aEbPliICmaSFiLswTG38wInJlH16Lu8UJM2qVE90nd6LaNVm9t7dGxKzd2AoiZgDASBExkyQ5VLsQMS9fJiPm/d1iBlK+UFB8ub/k4L4lliMCuk4bEXOsWckFwYlref5eMFtF+KBESTmRasSm7ahbk9UO8ZBau3FiiJgBACNFxEyS5FBtPWLOvixd7i+ynE/1Mj+H+Uj0yXTLEQE9pZ2IeX5VhfO2p66wQnMQXrLFYtNXalXEvFZNMrunImbtxokgYgYAjBQRM0mSQ7VTnWyNiTIAjJ1mI2bg5OlixPwoAAAnQp0ucCR3vyRJDslOdbIiZgCViJjRd7oYMU+MYgYAbB+jmEmSHKqd6mRFzAAqETGj74iYAQAjRcRMkuRQ7VQnK2IGUImIGX1HxAwAGCkiZpIkh2qnOlkRM4BKRMzoOyJmAMBIETGTJDlUO9XJWnMIADAG6txfT0TMAICBIWImSXKodqqTNYoZQCVGMaPvGMUMABgpImaSJIdqpzpZETOASkTM6DsiZgDASBExkyQ5VDvVyYqYAVQiYkbfGXjEvL+7k+HU3tnjFnh279TO7n4zFatdznTndau+wSEAMDZEzCRJDtVOdbIiZgCViJjRd4YfMS+T1lk6fOzcdfOIOQx9RcwA0DoiZpIkh2qnOlkRM4BKRMzoOyOKmOf58DGDVxEzAAwGETNJkkO1U52siBlAJSJm9J1xRszzoHg+i8ZR0Hs4xnlBGP6uZts4tbe/ipiLZa8Oy5Y23RrM13G4Vzxizh4W5tHTV6s3w/A4c9DqDREzAFQiYiZJcqh2qpMVMQOoRMSMvjO6iPkw1z3Mmk/tLt85TGmXiW/wapYFL4sIQulkxBwcf3ZvL7Z7NGI+u7cbzOqRrcOqFrniT4XVi1YOABBh2QWePn1NK87vfpcv53e/bVXm5G09fSBJDth2I+ZcN7eliDn6iK3liICe0mzEnGoKwu2RqzLYITnAMfl+vrzClRkWMts9X6XK0ZnZkgqXfa6S2fcL9T96c63WCSWMKGI+/NTOPzW5GTOiH/n5nvm3kilucEjsw7nuRBmZ/fM7r6qfq1663gCAAiJmskFbj5NIMmvrEXO2YTzhiNlyREAfaTxijjYF4ZUYDKo8is3yr8Pn9YOrOBiGWSNinme8mV32d7P7F1uJsnZjWtiUwnUfVKI4njRWmoi5KYYfMce+vAg/V5FP0+IiKHwAMxsSEXPqs1mvfw2+VMlEzOFFs9gQ+65HxAwANTFRRou2noeSjNp640A2ZRci5uU11VbEbDkioEdsL2LODVTMXonZNiKXNy/LCR6jz1/F2RC3ImKubI/WipjnBRd3yFWiqv4VZ8FaDD9ijn2Aa0fMhbe2GTGH3xeFo5jTEXP8OtC/AkAlImayKVsPRkmW2HoT0YodiZjnf/+yiDm78k840i/6GHtioaBgB8sRAX2ktYh5dYHHAqZMMByPaFfHlUfMtR7mrx0x1xkYGp5fxLx9RMyxb1LCSZtrTZSxfCP1vUxlxJyuVH7nynPpXwGgBiJmkszaehJKNminZqNKRszBXd/eKsRZe6GgFZYjAnrKtiPmyNSuZcFTtqSSCDlbSGnEXCPHXSNiXv16+ZMGr8PjRczbRsR8tFviIivpX7P9XL7jjfev5SOns6edfy2bvdLLevxMzXdXh+hfAaAcETNJcvC2HvWKmKsi5sQDtZF98m9FY5HsTpm7RcsRAV1nexFzNjhKTCd7jIh5daqTi5hLxibn1vTLNyQ7kV9fxNwUIubMpthVFryzu1+cYqP8jZ3wYx88JVT4ZAfPAeUnytjPViP3OxZPpn8FgEpEzCRJDtXuTJRRFjEvbgGPvVBQsHcsP7IcEdB1Go+Yo1Fy+KVRebOQf6Mro5hzX5mFLyNT+JiL+aQYeMQMAEAKETNJkkO1OxHzmcrl/rI5c0n4W3irxnJ/iX03PEvjEfO+5YiAJducKCPYHp9HIjURa525mDPv54sIhjhXXKM1I+b8YOTi6M74MxAi5q0jYgYAjBQRM0mSQ7UjEfP8ZUXEPGORgmy4UFCw0XJEQB9pIWJOzm0e3z8xSjmcdjaZEYczwCfqXCNijrQC+XlnE3Mzi5i3jYgZADBSRMwkSQ7VLkTMy5fJiHl/txjdbLJQUGYvyxEBPaWNiLn08iq8jqW3kdmOw8s+P99zbkP0u6SSLfHvmTLnNVFGi4iYAQAjRcRMkuRQbT1izr4sXe6vOFfq+gsFrR8xb3KWo+Ir3rAcEbAZ7UTM86swnMp4RXjpFWaoqD29eqqMwoQ4JRf7fP+93VipmSg5X8n0SoDLN6OtEzZAxAwAGCkiZpIkh2qnOtkaE2UAGDvNRszAydPFiPlRAABOhDpd4EjufkmSHJKd6mRFzAAqETGj73QxYp4YxQwA2D5GMZMkOVQ71cmKmAFUImJG3xExAwBGioiZJMmh2qlOVsQMoBIRM/qOiBkAMFJEzCRJDtVOdbIiZgCViJjRd0TMAICRImImSXKodqqTteYQAGAM1Lm/noiYAQADQ8RMkuRQ7VQnaxQzgEqMYkbfMYoZADBSRMwkSQ7VTnWyImYAlYiY0XdEzACAkSJiJklyqHaqkxUxA6hExIy+M/yIeX93Z8XufuXOp/bOrnuKs3uniiVvVlT98suZ/daLQ2aHhzRVMQDoNSJmkiSHaqc6WREzgEpEzOg7w46YD8PVTDi7v1eRrQ42Yg4On6fua5YIAINDxEyS5FDtVCcrYgZQiYgZfWfQEfMsW10v5h1HxDwphu8AMEJEzCRJDtVOdbIiZgCViJjRdwYdMQdBa0h28ohMEpzLhTN7hTuFG+tEzPGiEtXInWQ/LD9W1LwKq+HJVRFz2d8GAEaCiJkkyaHaqU5WxAygEhEz+s6wI+ajNLY4mvjs3m42nF1mrdlcOBgDvQxks1sX825URszxokqrEe4f5sWRog43n1qWViNiXn+INwAMjGUXePr0Na04v/tdvpzf/bZVmZO39fSBJDlg242Yc93cliLm1NOuliOyHBH6SOMRc2lTcHiVFC6M6FjEwgV1KoieCqeoFZGVXaDxulVe16lig0qGfwrtRrMMPGKesfiYJD8cmU96/MdFKbMPXnLWiQgVRSWrke+aMx/6VFH5wLg6Ym7yHwAA0EtEzGSDth4nkWTW1iPmbMN4ghGz5Yiih1uOCD2g0Yi5qimYvj+lcMkmI+bI1ZM8Ra2IueRyTNSt8rou+9Zttb0wpFO70RwjiJjnFD4bQS5cDIPzX3Msjz46Lvspq7h+kkUlqlEobrWhtFbZY4xiBoBKTJTRoq3noSSjtt44kE3ZhYh5eU2dXMRsOaLk4ZYjQtdpMmKuagrmV2sxUF4jYk6f4pgRc6puldd1vYg5nJtAu9Eoo4mYJ9nP0WFSm/3aIh4xpz9HYc5cI2KOFpWoRmH/MGKOFrV+xGwQM4DRI2Imm7L1YJRkia03Ea3YkYh5/vcvi5gLK/1McuOQigHQYvf9yI2e5YiS1bMcETpOo6OYyz/ui4s1OnC37ijm2vlUcMqSAivqVnldrxExZ2ep1W40x5gi5uVHI/zg5L7ByPSZ5RHsao+K6ydVVKoahf1zUy7HarVuxOwqAQARM0kGtp6Ekg3aqdmokhFzaqWf3FOvNdbsCYq0HJEHedFDmp2LOdUUzAjjqlSUFBQVy4/Src0xIuZ03Sqv61oRc9gOaDeaZdAR8/SjkP/ms9BHhtdE9kN/2K9lPoa7R0OMix+/yusnXlRpNVL9a7yotSLm+bkEzABGj4iZJDl4W496RcxVEXPuxqzwtGnwTGtqzZ5iscVRwvGTWI4I6AiNL/eXagpK0t5ay/3FnlZIPMEQP66kwJK6VV7XqWKDGWeLD09oN5pj0BFzfuricMjw8uOV7lSzxxc/s+XfwFQXla5GcJrd/cg1ny+qKmJO/B0AYMyImEmSHKrdmSijLGLOzcA4iQY8az42nj0uvPmLrANkOSKgMzQfMc/JNQW5CyE9qneS3aU8Rio+ebDZKObSujUxijn/+2k3mmXYETMAAElEzCRJDtXuRMxnKpf7y0a4JRFzyZo9ZSVbjqhYP6CLbCtinhRy2AKxWW3CoytHKlZFvXUi5vK6VV7XtSbKCH9D7UaziJgBACNFxEyS5FDtSMQ8f1kRMc9YxDPFEXPJmSHqLLBjOaLo+0AX2WLEHJ9b/Yhcg7BhxJy7ajeJmCvqVnld14qYkxPFazcaQMQMABgpImaSJIdqFyLm5ctkxBxb6Se/+k4uDYmu2bPcy3JEk9h7liNCH2gyYq7TFETeXidiTp1i44i5qm6V13W9iDlobrQbzSJiBgCMFBEzSZJDtfWIOfuydLm//MPg4ebIkOblhMRh4puZECMyAbLliICu0+go5nhTEHyXs2KV4+YnP1/OAx+5okpbm8qIuVBgZd0qr+tEPeMz8RTnH9JuHB8RMwBgpIiYSZIcqp3qZGtMlAFg7GxzogzgJOhixPwoAAAnQp0ucCR3vyRJDslOdbIiZgCViJjRd7oYMU+MYgYAbB+jmEmSHKqd6mRFzAAqETGj74iYAQAjRcRMkuRQ7VQnK2IGUImIGX1HxAwAGCkiZpIkh2qnOlkRM4BKRMzoOyJmAMBIETGTJDlUO9XJWnMIADAG6txfT0TMAICBIWImSXKodqqTNYoZQCVGMaPvGMUMABgpImaSJIdqpzpZETOASkTM6DsiZgDASBExkyQ5VDvVyYqYAVQiYkbfGX7EvL+7s2J3v3LnU3tnGzjROqWc3TtVWbHYufLn2KCckvI3/jsAQF8QMZMkOVQ71cmKmAFUImJG3xl2xDwLXbOp6/5eRW66abSaj3wPX9eNezeNmPMhs4gZANZCxEyS5FDtVCcrYgZQiYgZfWfQEfMsc10vKd0sWp0FvoXDZhvrBb6bRcyn9vZypxUxA8BaiJhJkhyqnepkRcwAKhExo+8MOmIuiXkPxzcXJ7XIRauZvfJDlDMbE2dZBdzz7Hd+2NGO2TL2w2g4dtJ8CUf1DM+ciZjD3yP/xv7yDLOtZ4NX2b/D6p3icOmqGgJA9xExkyQ5VDvVyYqYAVQiYkbfGXbEfBSGFgfknt3bzWajy1A0G80GY6CXYW5263zejWSOHR5zannGcNRzmMrGTxoroRhv14yYl+c+SoqzrzJ/h8zfLXirZg0BoPssu8DTp69pxfnd7/Ll/O63rcqcvK2nDyTJAdtuxJzr5rYUMaceY7Uc0QZ4kBet03jEXNoUHOY89R7Hzw7RzF3tJacoaR+Ct8IDC+fK1zFVmZIyq1qPWEOSaRGih6/eyWZliWpvUOeeMvCIecbi/8xkhxF+dCI/LkpZjPktXjc1IubkUOlsAYmTFqb8WO2XeaduxBwMVi4MXY7+Tquz1K0hAHQfETPZoK3HSSSZtfWIOdswnmDEbDmiDRExo3UajZirmoLp+1MKn/pkxJx4cj9xior2oRhM5R6Qz9Uo8fh+Sc0jAzvTrUediDk6dPXwTxgZ9Jn/22xQ554ygoh5TmEKh+BrhGKunP82YXn00XGpiyN3yuUhJRfEakPpSbPHREdb154oIxF2p/P11YbaNQSA7mOijBZtPQ8lGbX1xoFsyi5EzMtr6uQiZssRbYqIGa3TZMRc1RTMP/DFa3aNiDl9isr2IXeWbEmV35zVi2vDCQgqWo/qiHkWJUdb21TEnJxyoG6de8poIuZJbihu+I1GPGJOd1bZnDn1KcjPxbzYXig5jJijJy2LmJfX70lFzLVqCADdR8RMNmXrwSjJEltvIlqxIxHz/O9fFjHnV/qZEQyHSj17XljUZ/m+5YgsR4Q+0ugo5vJIa3G9RMcM1x3FnDpFZfsQi1bL09jMAWvEtZlEu7T1qBExF5vbwtZixJweml1d554ypoh5+X9fcVRxMVqt/vogTKwLn4PkJVAoebVn8qTlEfNREXslSfL6EXP+fBXzYQzgWgAwOkTMJJm19SSUbNBOzUaVjJiLK/3EHrAOhv4lFvUJirQcUW6uyGABIssRoaM0OxdzqimYESZf0ewnX1Tsio+forp9CHcJU6bKEdO14tqwzKrWo07EfDY6AW4yHE/G2XXr3FMGHTFP/x/KfzVa6CPDayLbL+0Hk8UseuT93djnJ9y3eGzxok30r/GTVkbMy++EM1dI+G3x+hFz2b9kqmsIAN1HxEySHLytR70i5qqIOXcXVbjVCx56TS3qUyy2OBI3fpL0s6yLExcrWTNiTg6VTg+CWp0sH7dER4PVjZhTzxSXjLIKRpTVqiFwTBpf7i/VFJQMsE1GzFliDz4EgW6diDlaWtmI6fCLosLhJWVWtR61IuZgU6x1zFUs35ysWeeeMuiIOfz/K/8dwvL/xXSnmj2++HFOPjqT+zRFPq+ZnXf3I5d0/hTVEfNRkWHfWTxB/Yg5+zBR5F8UVTUEgO4jYiZJcqh2Z6KMsog5mIHxkEg6k3ykveIerDDMObhljc8VmWeZpVZVMvdG8UHeRM1LT5q6BV7GRCc1V2StGgLHpPmIeU6uKch9OVIY8Ft/FHP8FOuNYo59uXPcUcyRx/JLW4+aEfPqh+CLpugo5uKTEGvWuacMO2IGACCJiJkkyaHanYj5TOVyf9kItyRiLrxVnfuEkzsGj6bGI+Z0cdlKpsbvrraHVSupeelI7PQoq33LEWF4bCtinhQi2gKRmWByR1d+1oPstrx9CM9SZ06JyADiyC6pMqtaj1iNo43D0THT/4nk3fmKrTu5xyBCZhEzAGCkiJhJkhyqHYmY5y8rIuYZizSimHWkJ2aokUgsdimOr4unJ+WPaoeJdeHUmY3p8+X2TJ606kHefcsRYWhsMWIu/UDnGoQNI+b4IOXY27FUOTVxR3H3WnFtWGZV61ExG1A+396N592xiLlkmHRFnXuKiBkAMFJEzCRJDtUuRMzLl8mIObbSz35hXZ9ggGF0UZ/s+MH8zBiFWGk+iNFyROGrYqUsR4QTpsmIuU5TEHl7nYg5dYpFMen2IfqNTmLAb35K2JpxbVBmVeuRr33YAISHhw+ENDdRRuS8fUTEDAAYKSJmkiSHausRc/Zl6XJ/+QfVw83pFYCya+7kJsTITRqcO9JyRJYjQidpdBRzvClIZJirPDQ/9/hy6oudYnHJ1mZVZuLN6Nw5iXPlL7JEZcrKrNF6JOaqX9Q2bDXi03rkK5bP39erc08RMQMARoqImSTJodqpTrbGRBkAxs42J8oAToIuRsyPAgBwItTpAkdy90uS5JDsVCcrYgZQiYgZfaeLEfPEKGYAwPYxipkkyaHaqU5WxAygEhEz+o6IGQAwUkTMJEkO1U51siJmAJWImNF3RMwAgJEiYiZJcqh2qpMVMQOoRMSMviNiBgCMFBEzSZJDtVOdrDWHAABjoM799UTEDAAYGCJmkiSHaqc6WaOYAVRiFDP6jlHMAICRImImSXKodqqTFTEDqETEjL4jYgYAjBQRM0mSQ7VTnayIGUAlImb0neFHzPu7Oyt29yt3PrV3toETrVPK2b1TlRWLnKtwyGEF1iwoODZf6Q0qVlL+xn9YANgSImaSJIdqpzpZETOASkTM6DvDjphnGWk2JN3fq4g5N01C8wntWmlvUxHzcTjKx8NfXsQMYNiImEmSHKqd6mRFzAAqETGj7ww6Yp5FpOsFm5slobN8tnBY/RS4IxHzqb293O8hYgYwbETMJEkO1U51siJmAJWImNF3Bh0xlySxh+Obi5Na5JLQzF75IcqZjYmzrALueVQ7P+xox2wZ+2GSGztpvoTURBmLA+b7L0sK0t3oL3V0bFhuJmIO/zD5N/aXRc62ng1eZctfvVMcLl31KwNA44iYSZIcqp3qZEXMACoRMaPvDDtiPsoui+Nnz+7tZqPMZYaZTVKDMdDL7DW7dT7vRjLHDo85tZvNc8OSVwXETxotoSpiXp4je7pE+atjsyXXjJiXpR8lxdlXmT/sTliLdX9lAGicZRd4+vQ1rTi/+12+nN/9tlWZk7f19IEkOWDbjZhz3dyWIubUU6eWI6pboOWI0CUaj5hLm4LDWKbe4/jZIZrF0YqpU5S0D8Fb4YGFc+XrmKpMSZnJ1iMIrMpag9KTlhwYa1EyTUP08NU7ibMnxsXW/WtslYFHzDMWf/Jk+x7+Hxz5cVHKYohu8bqpETEnh0pHk97wpIUpP+pEzKv9V3VOlZ95I3No3Yg5GKxcGLocrfDqLHV/ZQBoHBEz2aCtx0kkmbX1iDnbMJ5gxGw5onUKLMQEIma0SKMRc1VTMH1/SuFDmoyYE0/uJ05R0T4Uc6Tc8+y5GiWeti+peWFgZ3XEXNYaVHyflzywTsQcHRR7+H9O9OzhX32Dv8ZWGUHEPKcw40IQ9hdz5Xzmvzz66LjUxZE75fKQkgsiCHrTJ80eU2+ijOwJTi0GXEfLjw/frj1RRiI9Twf2qw21f2UAaBwTZbRo63koyaitNw5kU3YhYl5eUycXMVuOaJ0CLUeETtFkxFzVFMw/n8XLao2IOX2KyvYhd5ZsSZXfnNULVcMJCGpEzOWtQclJSw+sjphnUXK0HU9FzMm5B+r+NbbKaCLmSW7kbPiNRjxiTvct2Zw59f9Vfi7mxfZCyWHEHD1pgxFz/JcqZMOLqZNPImKu9SsDQOOImMmmbD0YJVli601EK3YkYp7//csi5tWYm/Ax1MQDztnd9+PpReI2ynJE4fZ9yxGhYzQ6irk80lp8vKNjhuuOYk6dorJ9iAWg5Zlp5oA1QtVEol3cWNUalEfMJQfWiJiLDXlhazFiTg/6rv5rbJUxRczLP3IigJ0k5otIECbWZZ/X9PlyeyZP2lDEXPotU7FOeyVJ8voRc/wXqP0rA0DjiJhJMmvrSSjZoJ2ajSoZMQf3onurO9HEQ9GFZ7+Ts6bGnry2HFH8TjYxJLAsYrYcEbZBs3Mxp5qCGWHyVZk1pdKZ+Cmq24dwlzAUqhwxXStUDcusGzGnBwhXRMzJA+tEzGdzqdhqY/Ts6Ry85l9jqww6Yp7+HfNfjRb6yPCayHYj+8FkMYseeX839v9yuG/x2OJFm+hf4ydtKmJOll8cZbz4kjlzYYRfP68fMZf906j6VwaAxhExkyQHb+tRr4i5KmLO3fQU7syCh14TY5UixRYHzsZPkn70dHHiYiVrRszJodLpMUurk+VDkTq3wLGYKlV+fHhZ3Yg5GKxcGLocrXAwRK3Wr4yx0fhyf6mmoGQYbDJizhJ78KEi0A3fWD3TEB3gHx8xHX6vUzi8pMz6EXMqyy45aemBtSLmaJhXcvZ8u7LmX2OrDDpiDv+q+aR/+bdOd6rZ44sf5+STLrn/zyOfqszO84d58vF07hSxiLnwMaoTMSfKj0TMR3UM+85ijetHzNmHiSL/RKn6lQGgcUTMJEkO1e5MlFEWMS9uDFOJ5WJT/JH2ilumwjDn4Ja1eAucv8lcHl2nkrk3ijekiZqXnrSBUVbJ8uPDt2tGzLVvgXMxV3mV3AKPneYj5jm5piD3XUaNAb/VH83sKdYbxRz7Lua4o5jzZa4RMcdbg+pRzIkDa0bMqx+Cb5ziZy88ErHmX2OrDDtiBgAgiYiZJMmh2p2I+Uzlcn/ZCLckYi68VZ37BCNnLUeUOnayfND2pCLmWr8yxsa2IuZJIaItEJtLJjy68qMZJKzl7UN4lvCU8XMlL/Vgl1SZa0XMsdagVsQcOzD2t4i2EkfHTP8nMYY6/kjEJn+NrSJiBgCMFBEzSZJDtSMR8/xlRcQ8Y5EZFBOJ9DwKNXKDxS7px1yjD3pXVLI6sil7rDbYM3nShiLm9C8VnbzDckRokS1GzKWfv1yDsGHEHB+kHHs7liqnJu4o7l4rVA3LXDNiLrYGNSPmWgcmznu44268RYtFzCXDpCv+GltFxAwAGCkiZpIkh2oXIubly2TEHFvpZ7+wrk8QlAQvCkHtWcsR5f9sifKLo4wXM1hkopvsk+aWI8K2aTJirtMURN5eJ2JOnWJRTLp9iH4BkxiWm5/BtWaoGpS5dsScbw1qR8yFA3N/l7AlCA8PHzVpbqKMyHm3h4gZADBSRMwkSQ7V1iPm7MvS5f7yD6qHm9MrAGWXyMlNiJGfdjg80nJEsV98VccwDSrWeJ2JMixHhDVodBRzvClIJI2r1DJ6oRXn1ojtm/vwlrQP8blzEufKXxOJypSVmWo9SiLmXGtQctKqZiR3cH7Qc9h8xCcMyZ89n+yv99fYKiJmAMBIETGTJDlUO9XJ1pgoA8DY2eZEGcBJ0MWI+VEAAE6EOl3gSO5+SZIckp3qZEXMACoRMaPvdDFinhjFDADYPkYxkyQ5VDvVyYqYAVQiYkbfETEDAEaKiJkkyaHaqU5WxAygEhEz+o6IGQAwUkTMJEkO1U51siJmAJWImNF3RMwAgJEiYiZJcqh2qpO15hAAYAzUub+eiJgBAANDxEyS5FDtVCdrFDOASoxiRt8xihkAMFJEzCRJDtVOdbIiZgCViJjRd0TMAICRImImSXKodqqTFTEDqETEjL4z/Ih5f3dnxe5+5c6n9s5udqKze6fWOFMTHP5qJ3EiABgkImaSJIdqpzpZETOASkTM6DvDjpgPU99MBru/V5EfbxoxH54oc+Q8bm4+/S2p33HScQAYJSJmkiSHaqc6WREzgEpEzOg7g46YZ0HverHrZjntbDRx4bB8vN0IImYAaA4RM0mSQ7VTnayIGUAlImb0nUFHzIfZbzzlzc5qkUlmczltZq9wp2Bj6izL7WGps0IXu8erMd9j+d7RG8UZP5bl5t7KVWj9pB0ARoGImSTJodqpTlbEDKASETP6zrAj5qMIt5ivnt3bXWwLRhtnw+AgmV2mttmt83k3spFxyKK0ZMScqEZQ62CIdFhS8Cr7IngjXT8AGDfLLvD06WtacX73u3w5v/ttqzInb+vpA0lywLYbMee6uS1FzKk7PcsRAX2k8Yi5tCnIT/e6OqRwhYVXepCxlZwi3T7Emq5IS5SuYXTXxUDMCMu3Svcp/u7Ga67LwCPmGYvPdfKDkfkox39clDL7sBWvhfRQ6cU76VHM8WqEH+Ps/jUj5uwLCTMAJBAxkw3aepxEkllbj5izDeMJRsyWIwL6SqMRc1VTMH1/SuESSkbMkWu75BTl7UO9iLmkhoWAr05QV70lnyinwz4kGEHEPGf+McxNH1H4Dmb1qY59r7EcxhyUVBoxl49iTlSjuEc8905HzKtXEmYASGGijBZtPQ8lGbX1xoFsyi5EzMtr6uQiZssRAb2lyYi5qimYXz11cthJKlZKn6KqfagVMZfU8NTeXu4MzUTM4RZDmDdgNBHzJPsBCUfWR4cul39dEeTMG8/FnKpGAxHz4qWEGQCSiJjJpmw9GCVZYutNRCt2JGKe//3LIub8Sj8zgnFIxQRksft+PKexHJFsCL2k0VHM5ZHW4koqJEbrjGKubAdS2+tEzGU1nL0RnqSpiDlTkDBtE8YUMS8/P3Ui3OpOKUysy76iKQTDscsqc8ImIub569g/OgAAc0TMJJm19SSUbNBOzUaVjJiLK/3kxwLnlw4KlwtKzppqOSK3wegdzc7FnGoKZqQGOK4XMSdOUd0+1IiYS2tY/KarsYh52d55SGIjBh0xTz8b+ZkxCn1keE3kOqmga989+hTHPsP5CcfDiWeyfWfmHwLJapRGzOEUHeEs64Xvdk7pWgEgiYiZJDl4W496RcxVEXPuhq0QbARPweZHFcVv9yxH5DYYPaTx5f5STUH+i6XsfMp1lvuLPfhQkk0VCq+OmMtrWGw2mouYVzNxaEQ2YNARc35C5dgMyPPJXRKdavb4zCc3clkVT7YTL2n+9E/wXW2hGumIeXlE4umj4Lf0dBAAlCJiJklyqHZnooyyiLnWSj/JkX8VUWphmLPliIAu03zEPCfXFOSSovDlWqOY46eobh+qIuaqGhZ3bDJizg0ZxToMO2Juk2XH2VrvZmA/AJQiYiZJcqh2J2I+U7ncXzbCLYmYC29V5z6WIwL6w7Yi5klhwG+B4gQ5+aMrL6qwtamcizkfVuWeQyitYW4i2unLRiNmjcjmiJiHijHMAFCBiJkkyaHakYh5/rIiYp6xuH0r3sYt047CW+WZcLCL5YiAzrPFiLk03k1PzprZofqqWh1a1T6UDzqurmGxHdwTMXcDEfMAOXrCySUBAKWImEmSHKpdiJiXL5MRc2yln/yaQLkV+KLL/WUfF7cckRth9JMmI+Y6TUHk7XUi5tQpFsWk24f83kHTVqOG8UlrRcwdQMQMABgpImaSJIdq6xFz9mXpcn+RlXyyz4kXhzQvp0le5SC5CTFycynnjrQcEdBJGh3FHG8KouOLswlu/qJeznS8Uywu2dpEa1DSmOUXC6yqYf79eVEi5g4gYgYAjBQRM0mSQ7VTnWyNiTKGgOWIgOOwzYky2qf99gHbp4sR86MAAJwIdbrAkdz9kiQ5JDvVyY4kYm4bY5jRb4YdMWMMdDFinhjFDADYPkYxkyQ5VDvVyYqYt43liDAARMzoOyJmAMBIETGTJDlUO9XJipgBVCJiRt8RMQMARoqImSTJodqpTlbEDKASETP6jogZADBSRMwkSQ7VTnWy1hwCAIyBOvfXExEzAGBgiJhJkhyqnepkjWIGUIlRzOg7RjEDAEaKiJkkyaHaqU5WxAygEhEz+o6IGQAwUkTMJEkO1U51siJmAJWImNF3Bh4x7+/uBOzuN1LsupzdO3XClTj8xVv6bQGgJ4iYSZIcqp3qZEXMACoRMaPvjCBiXgWts1en9s5WH1O9U30O4+VMgfO4ufn0t6TaDf9GADAQRMwkSQ7VTnWyImYAlYiY0XdGFTEfxruVYWujgWw01T5MmZsOmUXMALAmImaSJIdqpzpZETOASkTM6Dvji5hzL484imCDiTVme4bp7Or4+U/z3adb5i+X5S0PyZ2/WK9U+eHkGqtd4icqVHtVbu6tTTJ3ABgoImaSJIdqpzpZETOASkTM6DtjipjDPDV4ld0vSH3LIuZTp3YXb80z30zgO/8xF2mHFTvcJRkxn90LC19ujp6oUNPkLxG8ka4fAIyAZRd4+vQ1rTi/+12+nN/9tlWZk7f19IEkOWDbjZhz3dyWIubo7ZzliICe0mzEXNIUhJfnUcSU3391VKylySRLJSc6fCs/qrFYXLq5qDh1UEBh9GT52dO/bzAmNLpPcTCp4ZtzRhAxB1dN9p3s68wHt37EHL4RSW5Tg5hX76RHMef2PtorcaJCTdO/ROaFhBn